LAMMPS (31 Mar 2017)
Processor partition = 0

include		in.partitions
variable p_id world   0

include		in.temp
variable	temperature equal 900.
variable	temperature2 equal 800.
variable	tempDamp equal 0.1 # approx 0.1 ps
include		in.pressure
variable	pressure equal 1.
variable	pressureDamp equal 10.0
include 	in.seed
variable	seed world 85736
units		metal
atom_style	full
include		in.box.0
variable        mass equal 26.981539
lattice         hcp 2.86
Lattice spacing in x,y,z = 2.86 4.95367 4.67036
region          box block 0 12 0 7 0 7 units lattice
create_box      1 box
Created orthogonal box = (0 0 0) to (34.32 34.6757 32.6925)
create_atoms    1 box
Created 2352 atoms
mass            1 26.981539
change_box      all triclinic
Changing box ...
  triclinic box = (0 0 0) to (34.32 34.6757 32.6925) with tilt (0 0 0)

include 	in.setup
variable	out_freq equal 500
variable	out_freq2 equal 500

neigh_modify    delay 10 every 1
include		in.al
### Al - Sturgeon and Laird Potential Parameters ###
pair_style 	eam/fs
pair_coeff 	* * MDSL.eam.fs Al

timestep	0.002 # According to Frenkel and Smit is 0.001

thermo          500
thermo_style 	custom step temp pe press lx

restart 	500 restart.0 restart2.0

minimize 1.0e-2 1.0e-3 100 1000
  update every 1 steps, delay 0 steps, check yes
Setting up cg style minimization ...
  Unit style    : metal
Step Temp PotEng Press Lx
0            0   -7961.9991    3111.0622        34.32
Loop time of 0.00838375 on 4 procs for 1 steps with 2352 atoms

Minimization stats:
  Stopping criterion = energy tolerance
  Energy initial, next-to-last, final =
  Force two-norm initial, final = 1.3153e-12 7.04704e-13
  Force max component initial, final = 5.64132e-14 3.11001e-14
  Final line search alpha, max atom move = 1 3.11001e-14
  Iterations, force evaluations = 1 2

reset_timestep 	0

# NVT

fix             1 all nve
fix             2 all temp/csvr 900 900 0.1 85736

velocity        all create 900 85736 dist gaussian
run             25000
Setting up Verlet run ...
  Unit style    : metal
  Current step  : 0
  Time step     : 0.002
Step Temp PotEng Press Lx
0          900   -7961.9991    10619.653        34.32
Averages over the last 26 of 51 rows, steps 12500 to 25000:
Temp PotEng Press Lx
897.926 -7691.47 47671.7 34.32
Loop time of 37.9106 on 4 procs for 25000 steps with 2352 atoms

unfix           1
unfix           2

# NVT

fix             1 all nph aniso 1 1 10
fix             2 all temp/csvr 900 900 0.1 85736

run             25000
Setting up Verlet run ...
  Unit style    : metal
  Current step  : 25000
  Time step     : 0.002
Step Temp PotEng Press Lx
25000    904.79789   -7689.8439    47942.572        34.32
Averages over the last 26 of 51 rows, steps 37500 to 50000:
Temp PotEng Press Lx
897.141 -7636.25 -135.678 35.2183
Loop time of 31.3035 on 4 procs for 25000 steps with 2352 atoms

unfix           1
unfix           2

# NPT

include		in.dump
dump            myDump all atom 500 dump.0
dump            myDcdDump all dcd 500 out.dcd

#reset_timestep 	0

#fix             1 all plumed plumedfile plumed.dat outfile plumed.out
fix             2 all nph aniso 1 1 10
fix             3 all temp/csvr 900 900 0.1 85736
fix		4 all momentum 10000 linear 1 1 1 angular

run             100000
Setting up Verlet run ...
  Unit style    : metal
  Current step  : 50000
  Time step     : 0.002
Step Temp PotEng Press Lx
50000     898.3719   -7628.8297   -534.21106    35.239605
Averages over the last 101 of 201 rows, steps 100000 to 150000:
Temp PotEng Press Lx
899.123 -7635.45 50.2361 35.2182
Loop time of 131.492 on 4 procs for 100000 steps with 2352 atoms

write_data	data.final.0
System init for write_data ...
