LAMMPS (31 Mar 2017)
Processor partition = 0
echo both

include		in.partitions
variable p_id world   0

include		in.temp
variable	temperature equal 900.
variable	temperature2 equal 800.
variable	tempDamp equal 0.1 # approx 0.1 ps
include		in.pressure
variable	pressure equal 1.
variable	pressureDamp equal 10.0
include 	in.seed
variable	seed world 85736
units		metal
atom_style	full
include		in.box.0
variable        side equal 8
variable        mass equal 26.981539
lattice         fcc 4.04
Lattice spacing in x,y,z = 4.04 4.04 4.04
region          box block 0 8 0 8 0 8 units lattice
create_box      1 box
Created orthogonal box = (0 0 0) to (32.32 32.32 32.32)
create_atoms    1 box
Created 2048 atoms
mass            1 26.981539
change_box      all triclinic
  triclinic box = (0 0 0) to (32.32 32.32 32.32) with tilt (0 0 0)

include 	in.setup
variable	out_freq equal 500
variable	out_freq2 equal 500

neigh_modify    delay 10 every 1
include		in.al
### Al - Sturgeon and Laird Potential Parameters ###
pair_style 	eam/fs
pair_coeff 	* * MDSL.eam.fs Al

timestep	0.002 # According to Frenkel and Smit is 0.001

thermo          500
thermo_style 	custom step temp pe press lx

restart 	500 restart.0 restart2.0

minimize 1.0e-2 1.0e-3 100 1000
  update every 1 steps, delay 0 steps, check yes
Step Temp PotEng Press Lx
0            0   -6942.2721    5792.1581        32.32
Loop time of 0.00546741 on 4 procs for 1 steps with 2048 atoms

Minimization stats:
  Stopping criterion = energy tolerance
  Energy initial, next-to-last, final =
  Force two-norm initial, final = 3.03192e-13 3.03596e-13
  Force max component initial, final = 1.06026e-14 1.06026e-14
  Final line search alpha, max atom move = 1 1.06026e-14
  Iterations, force evaluations = 1 2

reset_timestep 	0

# NVT

fix             1 all nve
fix             2 all temp/csvr 900 900 0.1 85736

velocity        all create 900 85736 dist gaussian
run             25000
Step Temp PotEng Press Lx
0          900   -6942.2721    13326.235        32.32
Averages over the last 26 of 51 rows, steps 12500 to 25000:
Temp PotEng Press Lx
902.131 -6705.29 50087.4 32.32
Loop time of 27.5396 on 4 procs for 25000 steps with 2048 atoms

unfix           1
unfix           2

# NVT

fix             1 all nph iso 1 1 10
fix             2 all temp/csvr 900 900 0.1 85736

run             25000
Step Temp PotEng Press Lx
25000    909.94003   -6705.6122     50029.78        32.32
Averages over the last 26 of 51 rows, steps 37500 to 50000:
Temp PotEng Press Lx
896.663 -6657.04 -6.40195 33.2103
Loop time of 27.478 on 4 procs for 25000 steps with 2048 atoms

unfix           1
unfix           2

# NPT

include		in.dump
dump            myDump all atom 500 dump.0
dump            myDcdDump all dcd 500 out.dcd

#reset_timestep 	0

#fix             1 all plumed plumedfile plumed.dat outfile plumed.out
fix             2 all nph iso 1 1 10
fix             3 all temp/csvr 900 900 0.1 85736
fix		4 all momentum 10000 linear 1 1 1 angular

run             100000
Step Temp PotEng Press Lx
50000    897.06514   -6646.8788   -162.39438    33.246812
Averages over the last 101 of 201 rows, steps 100000 to 150000:
Temp PotEng Press Lx
901.31 -6657.6 -98.1406 33.2104
Loop time of 113.212 on 4 procs for 100000 steps with 2048 atoms

write_data	data.final.0
