LAMMPS (31 Mar 2017)
Processor partition = 0
echo both

include		in.partitions
variable p_id world   0

include		in.temp
variable	temperature equal 900.
variable	temperature2 equal 2000.
variable	tempDamp equal 0.1 # approx 0.1 ps
include		in.pressure
variable	pressure equal 1.
variable	pressureDamp equal 10.0
include 	in.seed
variable	seed world 74582
units		metal
atom_style	full
include		in.box.0
variable        side equal 8
variable        mass equal 26.981539
lattice         fcc 4.046
Lattice spacing in x,y,z = 4.046 4.046 4.046
region          box block 0 8 0 8 0 8 units lattice
create_box      1 box
Created orthogonal box = (0 0 0) to (32.368 32.368 32.368)
create_atoms    1 box
Created 2048 atoms
mass            1 26.981539
change_box      all triclinic
  triclinic box = (0 0 0) to (32.368 32.368 32.368) with tilt (0 0 0)

include 	in.setup
variable	out_freq equal 500
variable	out_freq2 equal 500

neigh_modify    delay 10 every 1
include		in.al
### Al - Sturgeon and Laird Potential Parameters ###
pair_style 	eam/fs
pair_coeff 	* * MDSL.eam.fs Al

timestep	0.002 # According to Frenkel and Smit is 0.001

thermo          500
thermo_style 	custom step temp pe press lx

restart 	500 restart.0 restart2.0

minimize 1.0e-2 1.0e-3 100 1000
  update every 1 steps, delay 0 steps, check yes
Step Temp PotEng Press Lx
0            0   -6942.6518    2297.0696       32.368
Loop time of 0.00540376 on 4 procs for 1 steps with 2048 atoms

Minimization stats:
  Stopping criterion = energy tolerance
  Energy initial, next-to-last, final =
  Force two-norm initial, final = 1.2094e-12 6.97432e-13
  Force max component initial, final = 3.38731e-14 2.71103e-14
  Final line search alpha, max atom move = 1 2.71103e-14
  Iterations, force evaluations = 1 2

reset_timestep 	0

# NVT

fix             1 all nve
fix             2 all temp/csvr 900 2000 0.1 74582

velocity        all create 900 74582 dist gaussian
run             25000
Step Temp PotEng Press Lx
0          900   -6942.6518     9797.678       32.368
Averages over the last 26 of 51 rows, steps 12500 to 25000:
Temp PotEng Press Lx
1713.81 -6440.75 95027 32.368
Loop time of 37.5737 on 4 procs for 25000 steps with 2048 atoms

unfix           1
unfix           2

# NVT

fix             1 all nph iso 1 1 10
fix             2 all temp/csvr 900 2000 0.1 74582

velocity        all create 900 74582 dist gaussian
run             25000
Step Temp PotEng Press Lx
25000          900   -6218.8848    122296.87       32.368
Averages over the last 26 of 51 rows, steps 37500 to 50000:
Temp PotEng Press Lx
1720.18 -6096 48.8424 35.5271
Loop time of 28.0614 on 4 procs for 25000 steps with 2048 atoms

unfix           1
unfix           2

# NVT

fix             1 all nph iso 1 1 10
fix             2 all temp/csvr 2000 2000 0.1 74582

run             50000
Step Temp PotEng Press Lx
50000    1949.1647   -5976.4683    676.89131    36.195515
Averages over the last 51 of 101 rows, steps 75000 to 100000:
Temp PotEng Press Lx
1995.86 -5972.34 96.9881 36.2141
Loop time of 42.852 on 4 procs for 50000 steps with 2048 atoms

unfix           1
unfix           2

# NVT

fix             1 all nph iso 1 1 10
fix             2 all temp/csvr 2000 900 0.1 74582

run             25000
Step Temp PotEng Press Lx
100000    2019.9841   -5974.6731   -585.34905      36.2053
Averages over the last 26 of 51 rows, steps 112500 to 125000:
Temp PotEng Press Lx
1179.97 -6327.86 -662.641 34.4354
Loop time of 23.9226 on 4 procs for 25000 steps with 2048 atoms

unfix           1
unfix           2

# NVT

fix             1 all nph iso 1 1 10
fix             2 all temp/csvr 900 900 0.1 74582

run             25000
Step Temp PotEng Press Lx
125000    861.34536   -6447.4026    -1603.947    33.930168
Averages over the last 26 of 51 rows, steps 137500 to 150000:
Temp PotEng Press Lx
896.502 -6458.74 189.45 33.8785
Loop time of 24.8773 on 4 procs for 25000 steps with 2048 atoms

unfix           1
unfix           2

# NPT

include		in.dump
dump            myDump all atom 500 dump.0
dump            myDcdDump all dcd 500 out.dcd

#reset_timestep 	0

#fix             1 all plumed plumedfile plumed.dat outfile plumed.out
fix             2 all nph iso 1 1 10
fix             3 all temp/csvr 900 900 0.1 74582
fix		4 all momentum 10000 linear 1 1 1 angular

run             100000
Step Temp PotEng Press Lx
150000    868.78499    -6459.088      765.505     33.86021
Averages over the last 101 of 201 rows, steps 200000 to 250000:
Temp PotEng Press Lx
898.94 -6460.25 56.4822 33.8745
Loop time of 114.014 on 4 procs for 100000 steps with 2048 atoms

write_data	data.final.0
