LAMMPS (31 Mar 2017)
Processor partition = 0

include		in.partitions
variable p_id world   0

include		in.temp
variable	temperature equal 900.
variable	tempDamp equal 0.1 # approx 0.1 ps
include		in.pressure
variable	pressure equal 1.
variable	pressureDamp equal 10.0
include 	in.seed
variable	seed world 74582
units		metal
atom_style	full
include		in.box.0
variable        side equal 10
variable        mass equal 26.981539
lattice         bcc 3.2 # Approx
Lattice spacing in x,y,z = 3.2 3.2 3.2
region          box block 0 10 0 10 0 10 units lattice
create_box      1 box
Created orthogonal box = (0 0 0) to (32 32 32)
create_atoms    1 box
Created 2000 atoms
mass            1 26.981539
change_box      all triclinic
Changing box ...
  triclinic box = (0 0 0) to (32 32 32) with tilt (0 0 0)

include 	in.setup
variable	out_freq equal 500
variable	out_freq2 equal 500

neigh_modify    delay 10 every 1
include		in.al
### Al - Sturgeon and Laird Potential Parameters ###
pair_style 	eam/fs
pair_coeff 	* * MDSL.eam.fs Al

timestep	0.002 # According to Frenkel and Smit is 0.001

thermo          500
thermo_style 	custom step temp pe press lx

restart 	500 restart.0 restart2.0

minimize 1.0e-2 1.0e-3 100 1000
  update every 1 steps, delay 0 steps, check yes
Setting up cg style minimization ...
  Unit style    : metal
Step Temp PotEng Press Lx
0            0   -6711.2871    5235.8847           32
Loop time of 0.00680995 on 4 procs for 1 steps with 2000 atoms

Minimization stats:
  Stopping criterion = energy tolerance
  Energy initial, next-to-last, final =
  Force two-norm initial, final = 3.95452e-13 3.92702e-13
  Force max component initial, final = 1.05194e-14 1.0917e-14
  Final line search alpha, max atom move = 1 1.0917e-14
  Iterations, force evaluations = 1 2

reset_timestep 	0

# NVT

fix             1 all nve
fix             2 all temp/csvr 900 900 0.1 74582

velocity        all create 900 74582 dist gaussian
run             25000
Setting up Verlet run ...
  Unit style    : metal
  Current step  : 0
  Time step     : 0.002
Step Temp PotEng Press Lx
0          900   -6711.2871    12816.232           32
Averages over the last 26 of 51 rows, steps 12500 to 25000:
Temp PotEng Press Lx
899.319 -6493.87 59382.8 32
Loop time of 30.5432 on 4 procs for 25000 steps with 2000 atoms

unfix           1
unfix           2

# NVT

fix             1 all nph iso 1 1 10
fix             2 all temp/csvr 900 900 0.1 74582

run             25000
Setting up Verlet run ...
  Unit style    : metal
  Current step  : 25000
  Time step     : 0.002
Step Temp PotEng Press Lx
25000    882.41381    -6493.443    59520.986           32
Averages over the last 26 of 51 rows, steps 37500 to 50000:
Temp PotEng Press Lx
898.683 -6445.16 -116.836 33.1009
Loop time of 25.4708 on 4 procs for 25000 steps with 2000 atoms

unfix           1
unfix           2

# NPT

include		in.dump
dump            myDump all atom 500 dump.0
dump            myDcdDump all dcd 500 out.dcd

#reset_timestep 	0

#fix             1 all plumed plumedfile plumed.dat outfile plumed.out
fix             2 all nph iso 1 1 10
fix             3 all temp/csvr 900 900 0.1 74582
fix		4 all momentum 10000 linear 1 1 1 angular

run             100000
Setting up Verlet run ...
  Unit style    : metal
  Current step  : 50000
  Time step     : 0.002
Step Temp PotEng Press Lx
50000    883.20873   -6445.6357    278.93264     33.09289
Averages over the last 101 of 201 rows, steps 100000 to 150000:
Temp PotEng Press Lx
898.178 -6444.94 43.1096 33.0989
Loop time of 117.437 on 4 procs for 100000 steps with 2000 atoms

write_data	data.final.0
System init for write_data ...
